<?xml version="1.0" encoding="UTF-8"?>
<additional xmlns:xsi="http://www.w3.org/2001/XMLSchema-instance" 
            xsi:noNamespaceSchemaLocation="http://sumo.dlr.de/xsd/additional_file.xsd">
    
    <!-- 主要走廊偵測器 -->
    <inductionLoop id="det_j1_in_e" lane="E0_J1_2" pos="480" freq="60" file="output/detectors.xml"/>
    <inductionLoop id="det_j1_out_e" lane="J1_J2_2" pos="20" freq="60" file="output/detectors.xml"/>
    
    <inductionLoop id="det_j2_in_e" lane="J1_J2_2" pos="480" freq="60" file="output/detectors.xml"/>
    <inductionLoop id="det_j2_out_e" lane="J2_J3_2" pos="20" freq="60" file="output/detectors.xml"/>
    
    <inductionLoop id="det_j3_in_e" lane="J2_J3_2" pos="480" freq="60" file="output/detectors.xml"/>
    <inductionLoop id="det_j3_out_e" lane="J3_J4_2" pos="20" freq="60" file="output/detectors.xml"/>
    
    <inductionLoop id="det_j4_in_e" lane="J3_J4_2" pos="480" freq="60" file="output/detectors.xml"/>
    <inductionLoop id="det_j4_out_e" lane="J4_J5_2" pos="20" freq="60" file="output/detectors.xml"/>
    
    <inductionLoop id="det_j5_in_e" lane="J4_J5_2" pos="480" freq="60" file="output/detectors.xml"/>
    <inductionLoop id="det_j5_out_e" lane="J5_E0_2" pos="20" freq="60" file="output/detectors.xml"/>
</additional>