<?xml version="1.0" encoding="UTF-8"?>
<nodes xmlns:xsi="http://www.w3.org/2001/XMLSchema-instance" 
       xsi:noNamespaceSchemaLocation="http://sumo.dlr.de/xsd/nodes_file.xsd">
    
    <!-- 主要走廊路口 (東西向) -->
    <node id="J1" x="0" y="0" type="traffic_light"/>
    <node id="J2" x="500" y="0" type="traffic_light"/>
    <node id="J3" x="1000" y="0" type="traffic_light"/>
    <node id="J4" x="1500" y="0" type="traffic_light"/>
    <node id="J5" x="2000" y="0" type="traffic_light"/>
    
    <!-- 南北向連接點 -->
    <node id="N1" x="0" y="300" type="priority"/>
    <node id="N2" x="500" y="300" type="priority"/>
    <node id="N3" x="1000" y="300" type="priority"/>
    <node id="N4" x="1500" y="300" type="priority"/>
    <node id="N5" x="2000" y="300" type="priority"/>
    
    <node id="S1" x="0" y="-300" type="priority"/>
    <node id="S2" x="500" y="-300" type="priority"/>
    <node id="S3" x="1000" y="-300" type="priority"/>
    <node id="S4" x="1500" y="-300" type="priority"/>
    <node id="S5" x="2000" y="-300" type="priority"/>
    
    <!-- 東西向延伸點 -->
    <node id="W0" x="-300" y="0" type="priority"/>
    <node id="E0" x="2300" y="0" type="priority"/>
</nodes>