<?xml version="1.0" encoding="UTF-8"?>

<!-- generated on 2025-09-20 10:08:02 by Eclipse SUMO netconvert Version 1.24.0
<netconvertConfiguration xmlns:xsi="http://www.w3.org/2001/XMLSchema-instance" xsi:noNamespaceSchemaLocation="http://sumo.dlr.de/xsd/netconvertConfiguration.xsd">

    <input>
        <node-files value="networks/corridor.nod.xml"/>
        <edge-files value="networks/corridor.edg.xml"/>
    </input>

    <output>
        <output-file value="networks/corridor.net.xml"/>
    </output>

    <tls_building>
        <tls.guess value="true"/>
    </tls_building>

</netconvertConfiguration>
-->

<net version="1.20" junctionCornerDetail="5" limitTurnSpeed="5.50" xmlns:xsi="http://www.w3.org/2001/XMLSchema-instance" xsi:noNamespaceSchemaLocation="http://sumo.dlr.de/xsd/net_file.xsd">

    <location netOffset="300.00,300.00" convBoundary="0.00,0.00,2600.00,600.00" origBoundary="-300.00,-300.00,2300.00,300.00" projParameter="!"/>

    <edge id=":E0_0" function="internal">
        <lane id=":E0_0_0" index="0" speed="3.65" length="4.67" shape="2600.00,298.40 2601.20,299.20 2601.60,300.00 2601.20,300.80 2600.00,301.60"/>
    </edge>
    <edge id=":J1_0" function="internal">
        <lane id=":J1_0_0" index="0" speed="6.51" length="9.03" shape="295.20,313.60 294.85,311.15 293.80,309.40 292.05,308.35 289.60,308.00"/>
    </edge>
    <edge id=":J1_1" function="internal">
        <lane id=":J1_1_0" index="0" speed="13.89" length="27.20" shape="295.20,313.60 295.20,286.40"/>
        <lane id=":J1_1_1" index="1" speed="13.89" length="27.20" shape="298.40,313.60 298.40,286.40"/>
    </edge>
    <edge id=":J1_3" function="internal">
        <lane id=":J1_3_0" index="0" speed="9.84" length="6.30" shape="298.40,313.60 299.11,307.34"/>
    </edge>
    <edge id=":J1_4" function="internal">
        <lane id=":J1_4_0" index="0" speed="3.65" length="1.44" shape="298.40,313.60 299.20,312.40"/>
    </edge>
    <edge id=":J1_22" function="internal">
        <lane id=":J1_22_0" index="0" speed="9.84" length="15.70" shape="299.11,307.34 299.15,306.95 301.40,302.20 305.15,299.35 310.40,298.40"/>
    </edge>
    <edge id=":J1_23" function="internal">
        <lane id=":J1_23_0" index="0" speed="3.65" length="3.23" shape="299.20,312.40 300.00,312.00 300.80,312.40 301.60,313.60"/>
    </edge>
    <edge id=":J1_5" function="internal">
        <lane id=":J1_5_0" index="0" speed="6.51" length="9.03" shape="310.40,308.00 307.95,308.35 306.20,309.40 305.15,311.15 304.80,313.60"/>
    </edge>
    <edge id=":J1_6" function="internal">
        <lane id=":J1_6_0" index="0" speed="16.67" length="20.80" shape="310.40,308.00 289.60,308.00"/>
        <lane id=":J1_6_1" index="1" speed="16.67" length="20.80" shape="310.40,304.80 289.60,304.80"/>
        <lane id=":J1_6_2" index="2" speed="16.67" length="20.80" shape="310.40,301.60 289.60,301.60"/>
    </edge>
    <edge id=":J1_9" function="internal">
        <lane id=":J1_9_0" index="0" speed="9.84" length="4.01" shape="310.40,301.60 306.45,300.89"/>
    </edge>
    <edge id=":J1_10" function="internal">
        <lane id=":J1_10_0" index="0" speed="3.65" length="1.44" shape="310.40,301.60 309.20,300.80"/>
    </edge>
    <edge id=":J1_24" function="internal">
        <lane id=":J1_24_0" index="0" speed="9.84" length="17.98" shape="306.45,300.89 305.15,300.65 301.40,297.80 299.15,293.05 298.40,286.40"/>
    </edge>
    <edge id=":J1_25" function="internal">
        <lane id=":J1_25_0" index="0" speed="3.65" length="3.23" shape="309.20,300.80 308.80,300.00 309.20,299.20 310.40,298.40"/>
    </edge>
    <edge id=":J1_11" function="internal">
        <lane id=":J1_11_0" index="0" speed="6.51" length="9.03" shape="304.80,286.40 305.15,288.85 306.20,290.60 307.95,291.65 310.40,292.00"/>
    </edge>
    <edge id=":J1_12" function="internal">
        <lane id=":J1_12_0" index="0" speed="13.89" length="27.20" shape="304.80,286.40 304.80,313.60"/>
        <lane id=":J1_12_1" index="1" speed="13.89" length="27.20" shape="301.60,286.40 301.60,313.60"/>
    </edge>
    <edge id=":J1_14" function="internal">
        <lane id=":J1_14_0" index="0" speed="9.84" length="6.30" shape="301.60,286.40 300.89,292.66"/>
    </edge>
    <edge id=":J1_15" function="internal">
        <lane id=":J1_15_0" index="0" speed="3.65" length="1.44" shape="301.60,286.40 300.80,287.60"/>
    </edge>
    <edge id=":J1_26" function="internal">
        <lane id=":J1_26_0" index="0" speed="9.84" length="15.70" shape="300.89,292.66 300.85,293.05 298.60,297.80 294.85,300.65 289.60,301.60"/>
    </edge>
    <edge id=":J1_27" function="internal">
        <lane id=":J1_27_0" index="0" speed="3.65" length="3.23" shape="300.80,287.60 300.00,288.00 299.20,287.60 298.40,286.40"/>
    </edge>
    <edge id=":J1_16" function="internal">
        <lane id=":J1_16_0" index="0" speed="6.51" length="9.03" shape="289.60,292.00 292.05,291.65 293.80,290.60 294.85,288.85 295.20,286.40"/>
    </edge>
    <edge id=":J1_17" function="internal">
        <lane id=":J1_17_0" index="0" speed="16.67" length="20.80" shape="289.60,292.00 310.40,292.00"/>
        <lane id=":J1_17_1" index="1" speed="16.67" length="20.80" shape="289.60,295.20 310.40,295.20"/>
        <lane id=":J1_17_2" index="2" speed="16.67" length="20.80" shape="289.60,298.40 310.40,298.40"/>
    </edge>
    <edge id=":J1_20" function="internal">
        <lane id=":J1_20_0" index="0" speed="9.84" length="4.01" shape="289.60,298.40 293.55,299.11"/>
    </edge>
    <edge id=":J1_21" function="internal">
        <lane id=":J1_21_0" index="0" speed="3.65" length="1.44" shape="289.60,298.40 290.80,299.20"/>
    </edge>
    <edge id=":J1_28" function="internal">
        <lane id=":J1_28_0" index="0" speed="9.84" length="17.98" shape="293.55,299.11 294.85,299.35 298.60,302.20 300.85,306.95 301.60,313.60"/>
    </edge>
    <edge id=":J1_29" function="internal">
        <lane id=":J1_29_0" index="0" speed="3.65" length="3.23" shape="290.80,299.20 291.20,300.00 290.80,300.80 289.60,301.60"/>
    </edge>
    <edge id=":J2_0" function="internal">
        <lane id=":J2_0_0" index="0" speed="6.51" length="9.03" shape="795.20,313.60 794.85,311.15 793.80,309.40 792.05,308.35 789.60,308.00"/>
    </edge>
    <edge id=":J2_1" function="internal">
        <lane id=":J2_1_0" index="0" speed="13.89" length="27.20" shape="795.20,313.60 795.20,286.40"/>
        <lane id=":J2_1_1" index="1" speed="13.89" length="27.20" shape="798.40,313.60 798.40,286.40"/>
    </edge>
    <edge id=":J2_3" function="internal">
        <lane id=":J2_3_0" index="0" speed="9.84" length="6.30" shape="798.40,313.60 799.11,307.34"/>
    </edge>
    <edge id=":J2_4" function="internal">
        <lane id=":J2_4_0" index="0" speed="3.65" length="1.44" shape="798.40,313.60 799.20,312.40"/>
    </edge>
    <edge id=":J2_22" function="internal">
        <lane id=":J2_22_0" index="0" speed="9.84" length="15.70" shape="799.11,307.34 799.15,306.95 801.40,302.20 805.15,299.35 810.40,298.40"/>
    </edge>
    <edge id=":J2_23" function="internal">
        <lane id=":J2_23_0" index="0" speed="3.65" length="3.23" shape="799.20,312.40 800.00,312.00 800.80,312.40 801.60,313.60"/>
    </edge>
    <edge id=":J2_5" function="internal">
        <lane id=":J2_5_0" index="0" speed="6.51" length="9.03" shape="810.40,308.00 807.95,308.35 806.20,309.40 805.15,311.15 804.80,313.60"/>
    </edge>
    <edge id=":J2_6" function="internal">
        <lane id=":J2_6_0" index="0" speed="16.67" length="20.80" shape="810.40,308.00 789.60,308.00"/>
        <lane id=":J2_6_1" index="1" speed="16.67" length="20.80" shape="810.40,304.80 789.60,304.80"/>
        <lane id=":J2_6_2" index="2" speed="16.67" length="20.80" shape="810.40,301.60 789.60,301.60"/>
    </edge>
    <edge id=":J2_9" function="internal">
        <lane id=":J2_9_0" index="0" speed="9.84" length="4.01" shape="810.40,301.60 806.45,300.89"/>
    </edge>
    <edge id=":J2_10" function="internal">
        <lane id=":J2_10_0" index="0" speed="3.65" length="1.44" shape="810.40,301.60 809.20,300.80"/>
    </edge>
    <edge id=":J2_24" function="internal">
        <lane id=":J2_24_0" index="0" speed="9.84" length="17.98" shape="806.45,300.89 805.15,300.65 801.40,297.80 799.15,293.05 798.40,286.40"/>
    </edge>
    <edge id=":J2_25" function="internal">
        <lane id=":J2_25_0" index="0" speed="3.65" length="3.23" shape="809.20,300.80 808.80,300.00 809.20,299.20 810.40,298.40"/>
    </edge>
    <edge id=":J2_11" function="internal">
        <lane id=":J2_11_0" index="0" speed="6.51" length="9.03" shape="804.80,286.40 805.15,288.85 806.20,290.60 807.95,291.65 810.40,292.00"/>
    </edge>
    <edge id=":J2_12" function="internal">
        <lane id=":J2_12_0" index="0" speed="13.89" length="27.20" shape="804.80,286.40 804.80,313.60"/>
        <lane id=":J2_12_1" index="1" speed="13.89" length="27.20" shape="801.60,286.40 801.60,313.60"/>
    </edge>
    <edge id=":J2_14" function="internal">
        <lane id=":J2_14_0" index="0" speed="9.84" length="6.30" shape="801.60,286.40 800.89,292.66"/>
    </edge>
    <edge id=":J2_15" function="internal">
        <lane id=":J2_15_0" index="0" speed="3.65" length="1.44" shape="801.60,286.40 800.80,287.60"/>
    </edge>
    <edge id=":J2_26" function="internal">
        <lane id=":J2_26_0" index="0" speed="9.84" length="15.70" shape="800.89,292.66 800.85,293.05 798.60,297.80 794.85,300.65 789.60,301.60"/>
    </edge>
    <edge id=":J2_27" function="internal">
        <lane id=":J2_27_0" index="0" speed="3.65" length="3.23" shape="800.80,287.60 800.00,288.00 799.20,287.60 798.40,286.40"/>
    </edge>
    <edge id=":J2_16" function="internal">
        <lane id=":J2_16_0" index="0" speed="6.51" length="9.03" shape="789.60,292.00 792.05,291.65 793.80,290.60 794.85,288.85 795.20,286.40"/>
    </edge>
    <edge id=":J2_17" function="internal">
        <lane id=":J2_17_0" index="0" speed="16.67" length="20.80" shape="789.60,292.00 810.40,292.00"/>
        <lane id=":J2_17_1" index="1" speed="16.67" length="20.80" shape="789.60,295.20 810.40,295.20"/>
        <lane id=":J2_17_2" index="2" speed="16.67" length="20.80" shape="789.60,298.40 810.40,298.40"/>
    </edge>
    <edge id=":J2_20" function="internal">
        <lane id=":J2_20_0" index="0" speed="9.84" length="4.01" shape="789.60,298.40 793.55,299.11"/>
    </edge>
    <edge id=":J2_21" function="internal">
        <lane id=":J2_21_0" index="0" speed="3.65" length="1.44" shape="789.60,298.40 790.80,299.20"/>
    </edge>
    <edge id=":J2_28" function="internal">
        <lane id=":J2_28_0" index="0" speed="9.84" length="17.98" shape="793.55,299.11 794.85,299.35 798.60,302.20 800.85,306.95 801.60,313.60"/>
    </edge>
    <edge id=":J2_29" function="internal">
        <lane id=":J2_29_0" index="0" speed="3.65" length="3.23" shape="790.80,299.20 791.20,300.00 790.80,300.80 789.60,301.60"/>
    </edge>
    <edge id=":J3_0" function="internal">
        <lane id=":J3_0_0" index="0" speed="6.51" length="9.03" shape="1295.20,313.60 1294.85,311.15 1293.80,309.40 1292.05,308.35 1289.60,308.00"/>
    </edge>
    <edge id=":J3_1" function="internal">
        <lane id=":J3_1_0" index="0" speed="13.89" length="27.20" shape="1295.20,313.60 1295.20,286.40"/>
        <lane id=":J3_1_1" index="1" speed="13.89" length="27.20" shape="1298.40,313.60 1298.40,286.40"/>
    </edge>
    <edge id=":J3_3" function="internal">
        <lane id=":J3_3_0" index="0" speed="9.84" length="6.30" shape="1298.40,313.60 1299.11,307.34"/>
    </edge>
    <edge id=":J3_4" function="internal">
        <lane id=":J3_4_0" index="0" speed="3.65" length="1.44" shape="1298.40,313.60 1299.20,312.40"/>
    </edge>
    <edge id=":J3_22" function="internal">
        <lane id=":J3_22_0" index="0" speed="9.84" length="15.70" shape="1299.11,307.34 1299.15,306.95 1301.40,302.20 1305.15,299.35 1310.40,298.40"/>
    </edge>
    <edge id=":J3_23" function="internal">
        <lane id=":J3_23_0" index="0" speed="3.65" length="3.23" shape="1299.20,312.40 1300.00,312.00 1300.80,312.40 1301.60,313.60"/>
    </edge>
    <edge id=":J3_5" function="internal">
        <lane id=":J3_5_0" index="0" speed="6.51" length="9.03" shape="1310.40,308.00 1307.95,308.35 1306.20,309.40 1305.15,311.15 1304.80,313.60"/>
    </edge>
    <edge id=":J3_6" function="internal">
        <lane id=":J3_6_0" index="0" speed="16.67" length="20.80" shape="1310.40,308.00 1289.60,308.00"/>
        <lane id=":J3_6_1" index="1" speed="16.67" length="20.80" shape="1310.40,304.80 1289.60,304.80"/>
        <lane id=":J3_6_2" index="2" speed="16.67" length="20.80" shape="1310.40,301.60 1289.60,301.60"/>
    </edge>
    <edge id=":J3_9" function="internal">
        <lane id=":J3_9_0" index="0" speed="9.84" length="4.01" shape="1310.40,301.60 1306.45,300.89"/>
    </edge>
    <edge id=":J3_10" function="internal">
        <lane id=":J3_10_0" index="0" speed="3.65" length="1.44" shape="1310.40,301.60 1309.20,300.80"/>
    </edge>
    <edge id=":J3_24" function="internal">
        <lane id=":J3_24_0" index="0" speed="9.84" length="17.98" shape="1306.45,300.89 1305.15,300.65 1301.40,297.80 1299.15,293.05 1298.40,286.40"/>
    </edge>
    <edge id=":J3_25" function="internal">
        <lane id=":J3_25_0" index="0" speed="3.65" length="3.23" shape="1309.20,300.80 1308.80,300.00 1309.20,299.20 1310.40,298.40"/>
    </edge>
    <edge id=":J3_11" function="internal">
        <lane id=":J3_11_0" index="0" speed="6.51" length="9.03" shape="1304.80,286.40 1305.15,288.85 1306.20,290.60 1307.95,291.65 1310.40,292.00"/>
    </edge>
    <edge id=":J3_12" function="internal">
        <lane id=":J3_12_0" index="0" speed="13.89" length="27.20" shape="1304.80,286.40 1304.80,313.60"/>
        <lane id=":J3_12_1" index="1" speed="13.89" length="27.20" shape="1301.60,286.40 1301.60,313.60"/>
    </edge>
    <edge id=":J3_14" function="internal">
        <lane id=":J3_14_0" index="0" speed="9.84" length="6.30" shape="1301.60,286.40 1300.89,292.66"/>
    </edge>
    <edge id=":J3_15" function="internal">
        <lane id=":J3_15_0" index="0" speed="3.65" length="1.44" shape="1301.60,286.40 1300.80,287.60"/>
    </edge>
    <edge id=":J3_26" function="internal">
        <lane id=":J3_26_0" index="0" speed="9.84" length="15.70" shape="1300.89,292.66 1300.85,293.05 1298.60,297.80 1294.85,300.65 1289.60,301.60"/>
    </edge>
    <edge id=":J3_27" function="internal">
        <lane id=":J3_27_0" index="0" speed="3.65" length="3.23" shape="1300.80,287.60 1300.00,288.00 1299.20,287.60 1298.40,286.40"/>
    </edge>
    <edge id=":J3_16" function="internal">
        <lane id=":J3_16_0" index="0" speed="6.51" length="9.03" shape="1289.60,292.00 1292.05,291.65 1293.80,290.60 1294.85,288.85 1295.20,286.40"/>
    </edge>
    <edge id=":J3_17" function="internal">
        <lane id=":J3_17_0" index="0" speed="16.67" length="20.80" shape="1289.60,292.00 1310.40,292.00"/>
        <lane id=":J3_17_1" index="1" speed="16.67" length="20.80" shape="1289.60,295.20 1310.40,295.20"/>
        <lane id=":J3_17_2" index="2" speed="16.67" length="20.80" shape="1289.60,298.40 1310.40,298.40"/>
    </edge>
    <edge id=":J3_20" function="internal">
        <lane id=":J3_20_0" index="0" speed="9.84" length="4.01" shape="1289.60,298.40 1293.55,299.11"/>
    </edge>
    <edge id=":J3_21" function="internal">
        <lane id=":J3_21_0" index="0" speed="3.65" length="1.44" shape="1289.60,298.40 1290.80,299.20"/>
    </edge>
    <edge id=":J3_28" function="internal">
        <lane id=":J3_28_0" index="0" speed="9.84" length="17.98" shape="1293.55,299.11 1294.85,299.35 1298.60,302.20 1300.85,306.95 1301.60,313.60"/>
    </edge>
    <edge id=":J3_29" function="internal">
        <lane id=":J3_29_0" index="0" speed="3.65" length="3.23" shape="1290.80,299.20 1291.20,300.00 1290.80,300.80 1289.60,301.60"/>
    </edge>
    <edge id=":J4_0" function="internal">
        <lane id=":J4_0_0" index="0" speed="6.51" length="9.03" shape="1795.20,313.60 1794.85,311.15 1793.80,309.40 1792.05,308.35 1789.60,308.00"/>
    </edge>
    <edge id=":J4_1" function="internal">
        <lane id=":J4_1_0" index="0" speed="13.89" length="27.20" shape="1795.20,313.60 1795.20,286.40"/>
        <lane id=":J4_1_1" index="1" speed="13.89" length="27.20" shape="1798.40,313.60 1798.40,286.40"/>
    </edge>
    <edge id=":J4_3" function="internal">
        <lane id=":J4_3_0" index="0" speed="9.84" length="6.30" shape="1798.40,313.60 1799.11,307.34"/>
    </edge>
    <edge id=":J4_4" function="internal">
        <lane id=":J4_4_0" index="0" speed="3.65" length="1.44" shape="1798.40,313.60 1799.20,312.40"/>
    </edge>
    <edge id=":J4_22" function="internal">
        <lane id=":J4_22_0" index="0" speed="9.84" length="15.70" shape="1799.11,307.34 1799.15,306.95 1801.40,302.20 1805.15,299.35 1810.40,298.40"/>
    </edge>
    <edge id=":J4_23" function="internal">
        <lane id=":J4_23_0" index="0" speed="3.65" length="3.23" shape="1799.20,312.40 1800.00,312.00 1800.80,312.40 1801.60,313.60"/>
    </edge>
    <edge id=":J4_5" function="internal">
        <lane id=":J4_5_0" index="0" speed="6.51" length="9.03" shape="1810.40,308.00 1807.95,308.35 1806.20,309.40 1805.15,311.15 1804.80,313.60"/>
    </edge>
    <edge id=":J4_6" function="internal">
        <lane id=":J4_6_0" index="0" speed="16.67" length="20.80" shape="1810.40,308.00 1789.60,308.00"/>
        <lane id=":J4_6_1" index="1" speed="16.67" length="20.80" shape="1810.40,304.80 1789.60,304.80"/>
        <lane id=":J4_6_2" index="2" speed="16.67" length="20.80" shape="1810.40,301.60 1789.60,301.60"/>
    </edge>
    <edge id=":J4_9" function="internal">
        <lane id=":J4_9_0" index="0" speed="9.84" length="4.01" shape="1810.40,301.60 1806.45,300.89"/>
    </edge>
    <edge id=":J4_10" function="internal">
        <lane id=":J4_10_0" index="0" speed="3.65" length="1.44" shape="1810.40,301.60 1809.20,300.80"/>
    </edge>
    <edge id=":J4_24" function="internal">
        <lane id=":J4_24_0" index="0" speed="9.84" length="17.98" shape="1806.45,300.89 1805.15,300.65 1801.40,297.80 1799.15,293.05 1798.40,286.40"/>
    </edge>
    <edge id=":J4_25" function="internal">
        <lane id=":J4_25_0" index="0" speed="3.65" length="3.23" shape="1809.20,300.80 1808.80,300.00 1809.20,299.20 1810.40,298.40"/>
    </edge>
    <edge id=":J4_11" function="internal">
        <lane id=":J4_11_0" index="0" speed="6.51" length="9.03" shape="1804.80,286.40 1805.15,288.85 1806.20,290.60 1807.95,291.65 1810.40,292.00"/>
    </edge>
    <edge id=":J4_12" function="internal">
        <lane id=":J4_12_0" index="0" speed="13.89" length="27.20" shape="1804.80,286.40 1804.80,313.60"/>
        <lane id=":J4_12_1" index="1" speed="13.89" length="27.20" shape="1801.60,286.40 1801.60,313.60"/>
    </edge>
    <edge id=":J4_14" function="internal">
        <lane id=":J4_14_0" index="0" speed="9.84" length="6.30" shape="1801.60,286.40 1800.89,292.66"/>
    </edge>
    <edge id=":J4_15" function="internal">
        <lane id=":J4_15_0" index="0" speed="3.65" length="1.44" shape="1801.60,286.40 1800.80,287.60"/>
    </edge>
    <edge id=":J4_26" function="internal">
        <lane id=":J4_26_0" index="0" speed="9.84" length="15.70" shape="1800.89,292.66 1800.85,293.05 1798.60,297.80 1794.85,300.65 1789.60,301.60"/>
    </edge>
    <edge id=":J4_27" function="internal">
        <lane id=":J4_27_0" index="0" speed="3.65" length="3.23" shape="1800.80,287.60 1800.00,288.00 1799.20,287.60 1798.40,286.40"/>
    </edge>
    <edge id=":J4_16" function="internal">
        <lane id=":J4_16_0" index="0" speed="6.51" length="9.03" shape="1789.60,292.00 1792.05,291.65 1793.80,290.60 1794.85,288.85 1795.20,286.40"/>
    </edge>
    <edge id=":J4_17" function="internal">
        <lane id=":J4_17_0" index="0" speed="16.67" length="20.80" shape="1789.60,292.00 1810.40,292.00"/>
        <lane id=":J4_17_1" index="1" speed="16.67" length="20.80" shape="1789.60,295.20 1810.40,295.20"/>
        <lane id=":J4_17_2" index="2" speed="16.67" length="20.80" shape="1789.60,298.40 1810.40,298.40"/>
    </edge>
    <edge id=":J4_20" function="internal">
        <lane id=":J4_20_0" index="0" speed="9.84" length="4.01" shape="1789.60,298.40 1793.55,299.11"/>
    </edge>
    <edge id=":J4_21" function="internal">
        <lane id=":J4_21_0" index="0" speed="3.65" length="1.44" shape="1789.60,298.40 1790.80,299.20"/>
    </edge>
    <edge id=":J4_28" function="internal">
        <lane id=":J4_28_0" index="0" speed="9.84" length="17.98" shape="1793.55,299.11 1794.85,299.35 1798.60,302.20 1800.85,306.95 1801.60,313.60"/>
    </edge>
    <edge id=":J4_29" function="internal">
        <lane id=":J4_29_0" index="0" speed="3.65" length="3.23" shape="1790.80,299.20 1791.20,300.00 1790.80,300.80 1789.60,301.60"/>
    </edge>
    <edge id=":J5_0" function="internal">
        <lane id=":J5_0_0" index="0" speed="6.51" length="9.03" shape="2295.20,313.60 2294.85,311.15 2293.80,309.40 2292.05,308.35 2289.60,308.00"/>
    </edge>
    <edge id=":J5_1" function="internal">
        <lane id=":J5_1_0" index="0" speed="13.89" length="27.20" shape="2295.20,313.60 2295.20,286.40"/>
        <lane id=":J5_1_1" index="1" speed="13.89" length="27.20" shape="2298.40,313.60 2298.40,286.40"/>
    </edge>
    <edge id=":J5_3" function="internal">
        <lane id=":J5_3_0" index="0" speed="9.84" length="6.30" shape="2298.40,313.60 2299.11,307.34"/>
    </edge>
    <edge id=":J5_4" function="internal">
        <lane id=":J5_4_0" index="0" speed="3.65" length="1.44" shape="2298.40,313.60 2299.20,312.40"/>
    </edge>
    <edge id=":J5_22" function="internal">
        <lane id=":J5_22_0" index="0" speed="9.84" length="15.70" shape="2299.11,307.34 2299.15,306.95 2301.40,302.20 2305.15,299.35 2310.40,298.40"/>
    </edge>
    <edge id=":J5_23" function="internal">
        <lane id=":J5_23_0" index="0" speed="3.65" length="3.23" shape="2299.20,312.40 2300.00,312.00 2300.80,312.40 2301.60,313.60"/>
    </edge>
    <edge id=":J5_5" function="internal">
        <lane id=":J5_5_0" index="0" speed="6.51" length="9.03" shape="2310.40,308.00 2307.95,308.35 2306.20,309.40 2305.15,311.15 2304.80,313.60"/>
    </edge>
    <edge id=":J5_6" function="internal">
        <lane id=":J5_6_0" index="0" speed="16.67" length="20.80" shape="2310.40,308.00 2289.60,308.00"/>
        <lane id=":J5_6_1" index="1" speed="16.67" length="20.80" shape="2310.40,304.80 2289.60,304.80"/>
        <lane id=":J5_6_2" index="2" speed="16.67" length="20.80" shape="2310.40,301.60 2289.60,301.60"/>
    </edge>
    <edge id=":J5_9" function="internal">
        <lane id=":J5_9_0" index="0" speed="9.84" length="4.01" shape="2310.40,301.60 2306.45,300.89"/>
    </edge>
    <edge id=":J5_10" function="internal">
        <lane id=":J5_10_0" index="0" speed="3.65" length="1.44" shape="2310.40,301.60 2309.20,300.80"/>
    </edge>
    <edge id=":J5_24" function="internal">
        <lane id=":J5_24_0" index="0" speed="9.84" length="17.98" shape="2306.45,300.89 2305.15,300.65 2301.40,297.80 2299.15,293.05 2298.40,286.40"/>
    </edge>
    <edge id=":J5_25" function="internal">
        <lane id=":J5_25_0" index="0" speed="3.65" length="3.23" shape="2309.20,300.80 2308.80,300.00 2309.20,299.20 2310.40,298.40"/>
    </edge>
    <edge id=":J5_11" function="internal">
        <lane id=":J5_11_0" index="0" speed="6.51" length="9.03" shape="2304.80,286.40 2305.15,288.85 2306.20,290.60 2307.95,291.65 2310.40,292.00"/>
    </edge>
    <edge id=":J5_12" function="internal">
        <lane id=":J5_12_0" index="0" speed="13.89" length="27.20" shape="2304.80,286.40 2304.80,313.60"/>
        <lane id=":J5_12_1" index="1" speed="13.89" length="27.20" shape="2301.60,286.40 2301.60,313.60"/>
    </edge>
    <edge id=":J5_14" function="internal">
        <lane id=":J5_14_0" index="0" speed="9.84" length="6.30" shape="2301.60,286.40 2300.89,292.66"/>
    </edge>
    <edge id=":J5_15" function="internal">
        <lane id=":J5_15_0" index="0" speed="3.65" length="1.44" shape="2301.60,286.40 2300.80,287.60"/>
    </edge>
    <edge id=":J5_26" function="internal">
        <lane id=":J5_26_0" index="0" speed="9.84" length="15.70" shape="2300.89,292.66 2300.85,293.05 2298.60,297.80 2294.85,300.65 2289.60,301.60"/>
    </edge>
    <edge id=":J5_27" function="internal">
        <lane id=":J5_27_0" index="0" speed="3.65" length="3.23" shape="2300.80,287.60 2300.00,288.00 2299.20,287.60 2298.40,286.40"/>
    </edge>
    <edge id=":J5_16" function="internal">
        <lane id=":J5_16_0" index="0" speed="6.51" length="9.03" shape="2289.60,292.00 2292.05,291.65 2293.80,290.60 2294.85,288.85 2295.20,286.40"/>
    </edge>
    <edge id=":J5_17" function="internal">
        <lane id=":J5_17_0" index="0" speed="16.67" length="20.80" shape="2289.60,292.00 2310.40,292.00"/>
        <lane id=":J5_17_1" index="1" speed="16.67" length="20.80" shape="2289.60,295.20 2310.40,295.20"/>
        <lane id=":J5_17_2" index="2" speed="16.67" length="20.80" shape="2289.60,298.40 2310.40,298.40"/>
    </edge>
    <edge id=":J5_20" function="internal">
        <lane id=":J5_20_0" index="0" speed="9.84" length="4.01" shape="2289.60,298.40 2293.55,299.11"/>
    </edge>
    <edge id=":J5_21" function="internal">
        <lane id=":J5_21_0" index="0" speed="3.65" length="1.44" shape="2289.60,298.40 2290.80,299.20"/>
    </edge>
    <edge id=":J5_28" function="internal">
        <lane id=":J5_28_0" index="0" speed="9.84" length="17.98" shape="2293.55,299.11 2294.85,299.35 2298.60,302.20 2300.85,306.95 2301.60,313.60"/>
    </edge>
    <edge id=":J5_29" function="internal">
        <lane id=":J5_29_0" index="0" speed="3.65" length="3.23" shape="2290.80,299.20 2291.20,300.00 2290.80,300.80 2289.60,301.60"/>
    </edge>
    <edge id=":N1_0" function="internal">
        <lane id=":N1_0_0" index="0" speed="3.65" length="4.67" shape="301.60,600.00 300.80,601.20 300.00,601.60 299.20,601.20 298.40,600.00"/>
    </edge>
    <edge id=":N2_0" function="internal">
        <lane id=":N2_0_0" index="0" speed="3.65" length="4.67" shape="801.60,600.00 800.80,601.20 800.00,601.60 799.20,601.20 798.40,600.00"/>
    </edge>
    <edge id=":N3_0" function="internal">
        <lane id=":N3_0_0" index="0" speed="3.65" length="4.67" shape="1301.60,600.00 1300.80,601.20 1300.00,601.60 1299.20,601.20 1298.40,600.00"/>
    </edge>
    <edge id=":N4_0" function="internal">
        <lane id=":N4_0_0" index="0" speed="3.65" length="4.67" shape="1801.60,600.00 1800.80,601.20 1800.00,601.60 1799.20,601.20 1798.40,600.00"/>
    </edge>
    <edge id=":N5_0" function="internal">
        <lane id=":N5_0_0" index="0" speed="3.65" length="4.67" shape="2301.60,600.00 2300.80,601.20 2300.00,601.60 2299.20,601.20 2298.40,600.00"/>
    </edge>
    <edge id=":S1_0" function="internal">
        <lane id=":S1_0_0" index="0" speed="3.65" length="4.67" shape="298.40,0.00 299.20,-1.20 300.00,-1.60 300.80,-1.20 301.60,0.00"/>
    </edge>
    <edge id=":S2_0" function="internal">
        <lane id=":S2_0_0" index="0" speed="3.65" length="4.67" shape="798.40,0.00 799.20,-1.20 800.00,-1.60 800.80,-1.20 801.60,0.00"/>
    </edge>
    <edge id=":S3_0" function="internal">
        <lane id=":S3_0_0" index="0" speed="3.65" length="4.67" shape="1298.40,0.00 1299.20,-1.20 1300.00,-1.60 1300.80,-1.20 1301.60,0.00"/>
    </edge>
    <edge id=":S4_0" function="internal">
        <lane id=":S4_0_0" index="0" speed="3.65" length="4.67" shape="1798.40,0.00 1799.20,-1.20 1800.00,-1.60 1800.80,-1.20 1801.60,0.00"/>
    </edge>
    <edge id=":S5_0" function="internal">
        <lane id=":S5_0_0" index="0" speed="3.65" length="4.67" shape="2298.40,0.00 2299.20,-1.20 2300.00,-1.60 2300.80,-1.20 2301.60,0.00"/>
    </edge>
    <edge id=":W0_0" function="internal">
        <lane id=":W0_0_0" index="0" speed="3.65" length="4.67" shape="0.00,301.60 -1.20,300.80 -1.60,300.00 -1.20,299.20 0.00,298.40"/>
    </edge>

    <edge id="E0_J1" from="W0" to="J1" priority="5">
        <lane id="E0_J1_0" index="0" speed="16.67" length="289.60" shape="0.00,292.00 289.60,292.00"/>
        <lane id="E0_J1_1" index="1" speed="16.67" length="289.60" shape="0.00,295.20 289.60,295.20"/>
        <lane id="E0_J1_2" index="2" speed="16.67" length="289.60" shape="0.00,298.40 289.60,298.40"/>
    </edge>
    <edge id="E0_J5" from="E0" to="J5" priority="5">
        <lane id="E0_J5_0" index="0" speed="16.67" length="289.60" shape="2600.00,308.00 2310.40,308.00"/>
        <lane id="E0_J5_1" index="1" speed="16.67" length="289.60" shape="2600.00,304.80 2310.40,304.80"/>
        <lane id="E0_J5_2" index="2" speed="16.67" length="289.60" shape="2600.00,301.60 2310.40,301.60"/>
    </edge>
    <edge id="J1_E0" from="J1" to="W0" priority="5">
        <lane id="J1_E0_0" index="0" speed="16.67" length="289.60" shape="289.60,308.00 0.00,308.00"/>
        <lane id="J1_E0_1" index="1" speed="16.67" length="289.60" shape="289.60,304.80 0.00,304.80"/>
        <lane id="J1_E0_2" index="2" speed="16.67" length="289.60" shape="289.60,301.60 0.00,301.60"/>
    </edge>
    <edge id="J1_J2" from="J1" to="J2" priority="5">
        <lane id="J1_J2_0" index="0" speed="16.67" length="479.20" shape="310.40,292.00 789.60,292.00"/>
        <lane id="J1_J2_1" index="1" speed="16.67" length="479.20" shape="310.40,295.20 789.60,295.20"/>
        <lane id="J1_J2_2" index="2" speed="16.67" length="479.20" shape="310.40,298.40 789.60,298.40"/>
    </edge>
    <edge id="J1_N1" from="J1" to="N1" priority="3">
        <lane id="J1_N1_0" index="0" speed="13.89" length="286.40" shape="304.80,313.60 304.80,600.00"/>
        <lane id="J1_N1_1" index="1" speed="13.89" length="286.40" shape="301.60,313.60 301.60,600.00"/>
    </edge>
    <edge id="J1_S1" from="J1" to="S1" priority="3">
        <lane id="J1_S1_0" index="0" speed="13.89" length="286.40" shape="295.20,286.40 295.20,0.00"/>
        <lane id="J1_S1_1" index="1" speed="13.89" length="286.40" shape="298.40,286.40 298.40,0.00"/>
    </edge>